* Half-Adder
.include AND.txt
.include XOR.txt

.SUBCKT Half SUM CARRY A B vdd gnd
xAND CARRY A B vdd gnd AND
xXOR SUM A B vdd gnd XOR

.ends

