*4x4 multiplier

.INCLUDE 22nm_MGK.pm
.INCLUDE HalfAdder.txt



*parameters

.PARAM Wmin = 22nm
.PARAM Lmin = 22nm
.PARAM XX = 1


.temp = 25 

vdd n1 0 1

*netlist
xAND s c in1 in2 n1 0 Half

Cout out 0 0.5f
*Input
VinA in1 0 PULSE(0 1 0 50p 50p 80n 170n 0)
VinB in2 0 PULSE(0 1 0 50p 50p 160n 170n 0)

.tran 0.1n 340n

*Analysis
.CONTROL

run

plot v(in1) v(in2)+2 v(s)+4

.ENDC
.END
